14

 N                 -1.47654520   -2.87561434   -0.01535567
 H                 -0.47698520   -2.90528034   -0.01535567
 C                 -2.16349920   -1.59980234   -0.01535567
 H                 -2.78833220   -1.52299934   -0.90517867
 C                 -3.05012220   -1.45368034    1.21678533
 C                 -1.17302020   -0.44419134   -0.01535567
 H                 -3.55327820   -0.48711934    1.19042833
 C                 -4.09106920   -2.56808834    1.22901933
 O                 -2.24559820   -1.53989834    2.39585633
 O                  0.06390580   -0.67567634   -0.01535567
 H                 -3.58863720   -3.53501234    1.25584333
 H                 -4.72508320   -2.46410834    2.10953933
 H                 -4.70456620   -2.50280334    0.33043133
 H                 -2.80373520   -1.44791334    3.17149933
